REMARK  4 active torsions:
REMARK  status: ('A' for Active; 'I' for Inactive)
REMARK    1  A    between atoms: N_1  and  C_2 
REMARK    2  A    between atoms: C_2  and  C_3 
REMARK    3  A    between atoms: C_3  and  O_4 
REMARK    4  A    between atoms: C_3  and  C_5 
ROOT
HETATM    1  N   UNL     1       0.915  -1.763  -2.293  1.00  0.00     0.097 N 
HETATM    2  H   UNL     1       0.563  -2.170  -3.162  1.00  0.00     0.314 HD
HETATM    3  H   UNL     1       0.552  -0.809  -2.272  1.00  0.00     0.314 HD
ENDROOT
BRANCH   1   4
HETATM    4  C   UNL     1       2.384  -1.725  -2.347  1.00  0.00     0.276 C 
BRANCH   4   5
HETATM    5  C   UNL     1       2.993  -1.011  -1.115  1.00  0.00     0.166 C 
BRANCH   5   6
HETATM    6  O   UNL     1       2.589  -1.665   0.093  1.00  0.00    -0.378 OA
HETATM    7  H   UNL     1       1.830  -2.225  -0.152  1.00  0.00     0.211 HD
ENDBRANCH   5   6
BRANCH   5   8
HETATM    8  C   UNL     1       4.504  -0.995  -1.132  1.00  0.00     0.006 A 
HETATM    9  C   UNL     1       5.211   0.217  -1.155  1.00  0.00    -0.001 A 
HETATM   10  C   UNL     1       6.605   0.225  -1.143  1.00  0.00     0.006 A 
HETATM   11  C   UNL     1       7.305  -0.980  -1.107  1.00  0.00     0.035 A 
HETATM   12 BR   UNL     1       9.194  -0.971  -1.074  1.00  0.00    -0.049 Br
HETATM   13  C   UNL     1       6.623  -2.192  -1.083  1.00  0.00     0.006 A 
HETATM   14  C   UNL     1       5.228  -2.200  -1.089  1.00  0.00    -0.001 A 
ENDBRANCH   5   8
ENDBRANCH   4   5
ENDBRANCH   1   4
TORSDOF 4
